Version 4
SHEET 1 880 680
WIRE 432 112 208 112
WIRE 656 112 432 112
WIRE 432 160 432 112
WIRE 656 240 656 112
WIRE 208 256 208 112
WIRE 432 288 432 240
WIRE 432 288 384 288
WIRE 592 288 432 288
WIRE 432 336 432 288
WIRE 432 336 368 336
WIRE 496 336 432 336
WIRE 432 416 368 416
WIRE 496 416 432 416
WIRE 752 416 656 416
WIRE 656 432 656 416
WIRE 208 528 208 336
WIRE 432 528 432 416
WIRE 432 528 208 528
WIRE 656 528 656 496
WIRE 656 528 432 528
WIRE 208 560 208 528
FLAG 208 560 0
FLAG 384 288 Vb
IOPIN 384 288 In
FLAG 752 416 VLED
IOPIN 752 416 Out
SYMBOL Misc/battery 208 240 R0
SYMATTR InstName V1
SYMATTR Value 9V
SYMBOL res 416 144 R0
SYMATTR InstName R1
SYMATTR Value 175K
SYMBOL res 640 320 R0
SYMATTR InstName R3
SYMATTR Value 47.5
SYMBOL res 352 320 R0
SYMATTR InstName Rt
SYMATTR Value {Rp}
SYMBOL res 480 320 R0
SYMATTR InstName R2
SYMATTR Value 175K
SYMBOL LED 640 432 R0
SYMATTR InstName D1
SYMBOL npn 592 240 R0
SYMATTR InstName Q1
SYMATTR Value 2N2222
TEXT 536 600 Left 2 !.lib LTSpice/WP710A10QBC-2
