Version 4
SHEET 1 936 680
WIRE 16 32 -144 32
WIRE 192 32 16 32
WIRE -144 96 -144 32
WIRE 192 96 192 32
WIRE 16 144 16 112
WIRE 16 144 -16 144
WIRE 128 144 16 144
WIRE 320 272 192 272
WIRE -144 336 -144 176
WIRE 16 336 16 224
WIRE 16 336 -144 336
WIRE 192 336 16 336
WIRE 16 352 16 336
FLAG 16 352 0
FLAG -16 144 Vb
IOPIN -16 144 In
FLAG 320 272 VLED
IOPIN 320 272 Out
SYMBOL battery -144 80 R0
WINDOW 123 0 0 Left 2
WINDOW 0 34 37 Left 2
WINDOW 3 33 60 Left 2
SYMATTR InstName V1
SYMATTR Value 9V
SYMATTR SpiceLine Rser=0
SYMBOL res 0 16 R0
SYMATTR InstName R1
SYMATTR Value 12.1K
SYMBOL npn 128 96 R0
SYMATTR InstName Q1
SYMBOL res 0 128 R0
SYMATTR InstName R2
SYMATTR Value {Rp}
SYMBOL res 176 176 R0
SYMATTR InstName R3
SYMATTR Value 162
SYMBOL LED 176 272 R0
WINDOW 0 -29 31 Left 2
WINDOW 3 24 69 Left 2
SYMATTR InstName D1
SYMATTR Value WP710A10QBC-2
TEXT -120 432 Left 2 !.lib LTSpice/WP710A10QBC.SP3
TEXT -120 464 Left 2 !.tran 0 1ms 1us startup
TEXT -112 496 Left 2 !.step param Rp 5K 20K 5K
